14
ANY
C       5.93600000       3.68547000       9.32959000 
C       6.45914000       6.09259000       9.90174000 
C       6.04383000       4.72332000      10.46110000 
C       7.02101000       4.28061000      11.56550000 
H       5.00167000       3.79573000       8.77148000 
H       6.76017000       3.79810000       8.61597000 
H       5.97690000       2.66271000       9.71650000 
H       5.76418000       6.44381000       9.13212000 
H       5.04984000       4.83289000      10.91760000 
H       7.45496000       6.02383000       9.44970000 
H       6.94259000       3.20858000      11.76750000 
H       6.50677000       6.85140000      10.68900000 
H       8.05830000       4.48960000      11.28050000 
H       6.82463000       4.81137000      12.50170000 
